/*--------------------------------*- C++ -*----------------------------------*\
| =========                 |                                                 | 
| \\      /  F ield         | OpenFOAM: The Open Source CFD Toolbox           | 
|  \\    /   O peration     | Version:                                        |
|   \\  /    A nd           | Web:      http://www.OpenFOAM.org               |
|    \\/     M anipulation  |                                                 |
\*---------------------------------------------------------------------------*/
// **Generated by STL2OpenFOAM**

FoamFile
{
    version     2.0;
    format      ascii;
    class       dictionary;
    object      blockMeshDict;
}

scale 1;

vertices
(
    ( ofkey_xmin ofkey_ymin ofkey_zmin )
    ( ofkey_xmax ofkey_ymin ofkey_zmin )
    ( ofkey_xmax ofkey_ymax ofkey_zmin )
    ( ofkey_xmin ofkey_ymax ofkey_zmin )
    ( ofkey_xmin ofkey_ymin ofkey_zmax )
    ( ofkey_xmax ofkey_ymin ofkey_zmax ) 
    ( ofkey_xmax ofkey_ymax ofkey_zmax ) 
    ( ofkey_xmin ofkey_ymax ofkey_zmax ) 
);

blocks
(
    hex (0 1 2 3 4 5 6 7) (ofkey_blocksx ofkey_blocksy ofkey_blocksz) simpleGrading (1 1 1)
);

edges
(
);

boundary
(
    world
    {
        type patch;
        faces
        (
            (0 1 2 3)  // Front face
            (4 5 6 7)  // Back face
            (0 1 5 4)  // Bottom face
            (3 2 6 7)  // Top face
            (0 3 7 4)  // Left face
            (1 2 6 5)  // Right face
        );
    }
);
